************************
* B2 Spice
************************
* B2 Spice default format (same as Berkeley Spice 3F format)

***** main circuit
I1 0 4 DC 1u 
C1 N3 0 1u 
R1 4 N3 1K 
S1 N3 0 5 0 switch on 
R2 N1 0 1K 
B1 5 0 v = u(v(n1) - v(n2) - 1) + u(v(n3) - 1e-6)
R3 5 0 1K 
V1 N1 0 DC 0 PULSE( 1p 5 0 100u 100u 1p 200u)
.model switch SW vt = .5 vh = 0 ron = 1g roff = 1m 
.OPTIONS gmin = 1E-12 reltol = 1E-4 itl1 = 500 itl4 = 500 
+ rshunt = 1G 
.TRAN 10u 1m 0 1u uic
.IC 
.END